** MATERIALS
** 
*Material, name=DP1000
*USER MATERIAL,CONSTANTS=352
** 2 ELASTICITY, 6 BW PLASTICITY PARAMETERS
** E,NU,ceta,eta0,cthetas,cthetat,cthetac,m
 210000,0.34,0.0,0.33333,0.95,1.0,0.9,6.0
** 6 DUCTILE DAMAGE INITIATION LOCUS FUNCTION PARAMETERS, FRACTURE ENERGY DISSIPATION Gf [mJOULES/MM2],
** MAXIMUM VALUE FOR DUCTILE DAMAGE VARIABLE 
** D1,D2,D3,D4,D5,D6,Gf,Dcrit
 0.4,1,0.1,1.5,0.4,1,6500.0,0.09
** 6 PARAMETERS FOR TEMPERATURE SOFTENING CORRECTION FUNCTION,
** 2 PARAMETERS FOR STRAIN RATE HARDENING CORRECTION FUNCTION (FIRST AND SECOND)
** cT1, cT2, cT3, eta2, Cp, T0, cE1, cE2
 9,0.035,1.05,0.9,490000000.0,298.15,0.016,0.91
** 1 PARAMETER FOR STRAIN RATE HARDENING CORRECTION FUNCTION (THIRD)
** NUMBER OF INCREMENTS TO UPDATE PLASTIC STRAIN RATE SDV,
** BRITTLE DAMAGE INITIATION STRESS VALUE
** CUT OFF VALUE
** 4 PARAMETERS FOR DUCTILE CRIT LOCUS
** cE3, strrInc, sigdmg, Cutoff, Dc1, Dc2, Dc3, Dc4
 0.0006,115000.0,191000.0,-0.33333,0.1535,1.498,0.07998,1.5
** Flags for Strainrate and Temperature dependency
** ntempSwitch, nstrainSwitch, DcrSwitch, Damage Switch, Brittle Switch, surfFactor, zero, zero
 0,0,1,1,1,1,0,0
** FLOW CURVE
525.7470441,0,632.1621772,0.000963034,713.3796435,0.002242881,770.3683511,0.003782156
816.6208261,0.005487304,852.7107873,0.007258699,885.3205081,0.009066404,912.2610204,0.010938101
936.2333306,0.012816125,956.9648449,0.014736384,977.7626261,0.016646439,993.9172761,0.018617965
1008.498918,0.02059211,1022.970844,0.022635324,1034.522179,0.024693786,1047.110239,0.026802913
1056.575024,0.02892049,1066.351886,0.031020731,1075.175586,0.033135822,1083.768815,0.035281668
1092.402944,0.037435699,1098.362336,0.039618573,1105.485038,0.041809416,1111.305762,0.043989122
1118.165413,0.046168837,1123.507706,0.048365933,1129.969263,0.050578707,1133.542334,0.052830641
1139.296737,0.055077515,1142.944521,0.057319352,1148.037162,0.059593673,1153.395411,0.061872187
1156.454746,0.064151741,1161.034179,0.06646956,1165.750401,0.068786663,1168.260413,0.071147833
1172.446616,0.073515768,1175.075946,0.075913463,1179.376701,0.078359092,1182.147881,0.080810991
1183.556648,0.083314875,1187.120955,0.085849031,1190.93168,0.088423841,1193.973751,0.091032919
1197.066767,0.093688059,1200.16764,0.096420503,1203.202741,0.099165025,1206.2787,0.102018847
1209.36029,0.104952646,1212.45812,0.107979093,1215.568328,0.111097323,1218.731316,0.114352307
1221.851772,0.117648332,1224.785977,0.120826253,1224.917273,0.120970264,1225.051083,0.121117193
1225.196746,0.12127732,1225.334208,0.12142861,1225.474158,0.121582814,1256.131962,0.16
1287.250364,0.21,1312.229995,0.26,1333.16575,0.31,1351.226554,0.36
1367.13351,0.41,1381.36385,0.46,1394.250309,0.51,1406.034411,0.56
1416.897196,0.61,1426.977968,0.66,1436.386279,0.71,1445.209888,0.76
1453.520214,0.81,1461.376182,0.86,1468.826989,0.91,1475.914153,0.96
1482.673036,1.01,1489.134015,1.06,1495.323381,1.11,1501.264045,1.16
** ... 19 like lines cut
*Density
 7.85e-18,
*DEPVAR, delete=28
 34
